6918485
  -OEChem-01282610163D

 48 51  0     1  0  0  0  0  0999 V2000
    0.8700   -2.3018    2.1720 S   0  0  0  0  0  0  0  0  0  0  0  0
   -3.5901   -1.6254    1.5832 F   0  0  0  0  0  0  0  0  0  0  0  0
   -5.2083    0.2959   -3.2754 F   0  0  0  0  0  0  0  0  0  0  0  0
   -0.9237    0.3987   -1.0119 O   0  0  0  0  0  0  0  0  0  0  0  0
   -2.1189    1.8518    1.2285 N   0  0  0  0  0  0  0  0  0  0  0  0
    1.4192   -1.0320   -0.0117 N   0  0  0  0  0  0  0  0  0  0  0  0
   -1.3316    2.8639    0.8806 N   0  0  0  0  0  0  0  0  0  0  0  0
   -3.4812    3.5277    1.2950 N   0  0  0  0  0  0  0  0  0  0  0  0
    8.4374    1.5547   -1.5233 N   0  0  0  0  0  0  0  0  0  0  0  0
   -1.6502   -0.3345   -0.0158 C   0  0  1  0  0  0  0  0  0  0  0  0
   -0.9445   -1.7357    0.1749 C   0  0  1  0  0  0  0  0  0  0  0  0
   -1.5717    0.4935    1.3072 C   0  0  0  0  0  0  0  0  0  0  0  0
   -3.1117   -0.5099   -0.4569 C   0  0  0  0  0  0  0  0  0  0  0  0
   -0.9975   -2.6376   -1.0715 C   0  0  0  0  0  0  0  0  0  0  0  0
    0.5056   -1.6196    0.6707 C   0  0  0  0  0  0  0  0  0  0  0  0
   -3.9796   -1.1519    0.3912 C   0  0  0  0  0  0  0  0  0  0  0  0
   -3.4838   -0.0156   -1.6826 C   0  0  0  0  0  0  0  0  0  0  0  0
    2.5831   -1.1147    0.7276 C   0  0  0  0  0  0  0  0  0  0  0  0
   -4.8097   -0.1736   -2.0861 C   0  0  0  0  0  0  0  0  0  0  0  0
   -5.3055   -1.3096   -0.0124 C   0  0  0  0  0  0  0  0  0  0  0  0
   -3.3851    2.2308    1.4746 C   0  0  0  0  0  0  0  0  0  0  0  0
    2.4826   -1.7666    1.9388 C   0  0  0  0  0  0  0  0  0  0  0  0
   -5.7205   -0.8206   -1.2511 C   0  0  0  0  0  0  0  0  0  0  0  0
    3.8150   -0.5526    0.2543 C   0  0  0  0  0  0  0  0  0  0  0  0
   -2.2086    3.8685    0.9353 C   0  0  0  0  0  0  0  0  0  0  0  0
    5.0326   -1.1269    0.6229 C   0  0  0  0  0  0  0  0  0  0  0  0
    3.7981    0.5690   -0.5762 C   0  0  0  0  0  0  0  0  0  0  0  0
    6.2304   -0.5806    0.1623 C   0  0  0  0  0  0  0  0  0  0  0  0
    4.9962    1.1150   -1.0370 C   0  0  0  0  0  0  0  0  0  0  0  0
    6.2123    0.5402   -0.6676 C   0  0  0  0  0  0  0  0  0  0  0  0
    7.4395    1.0996   -1.1396 C   0  0  0  0  0  0  0  0  0  0  0  0
   -1.5034   -2.2842    0.9448 H   0  0  0  0  0  0  0  0  0  0  0  0
   -0.5263    0.6406    1.6058 H   0  0  0  0  0  0  0  0  0  0  0  0
   -2.0743    0.0021    2.1470 H   0  0  0  0  0  0  0  0  0  0  0  0
   -0.5008   -2.1637   -1.9251 H   0  0  0  0  0  0  0  0  0  0  0  0
   -2.0267   -2.8692   -1.3611 H   0  0  0  0  0  0  0  0  0  0  0  0
   -0.4892   -3.5905   -0.8837 H   0  0  0  0  0  0  0  0  0  0  0  0
   -1.2242    1.3227   -1.0126 H   0  0  0  0  0  0  0  0  0  0  0  0
   -2.8076    0.4864   -2.3648 H   0  0  0  0  0  0  0  0  0  0  0  0
   -6.0145   -1.8133    0.6381 H   0  0  0  0  0  0  0  0  0  0  0  0
   -4.1812    1.5667    1.7791 H   0  0  0  0  0  0  0  0  0  0  0  0
    3.2325   -1.9504    2.6957 H   0  0  0  0  0  0  0  0  0  0  0  0
   -6.7527   -0.9433   -1.5655 H   0  0  0  0  0  0  0  0  0  0  0  0
   -1.9114    4.8806    0.7049 H   0  0  0  0  0  0  0  0  0  0  0  0
    5.0873   -2.0108    1.2530 H   0  0  0  0  0  0  0  0  0  0  0  0
    2.8630    1.0376   -0.8738 H   0  0  0  0  0  0  0  0  0  0  0  0
    7.1706   -1.0419    0.4555 H   0  0  0  0  0  0  0  0  0  0  0  0
    4.9661    1.9896   -1.6824 H   0  0  0  0  0  0  0  0  0  0  0  0
  1 15  1  0  0  0  0
  1 22  1  0  0  0  0
  2 16  1  0  0  0  0
  3 19  1  0  0  0  0
  4 10  1  0  0  0  0
  4 38  1  0  0  0  0
  5  7  1  0  0  0  0
  5 12  1  0  0  0  0
  5 21  1  0  0  0  0
  6 15  2  0  0  0  0
  6 18  1  0  0  0  0
  7 25  2  0  0  0  0
  8 21  2  0  0  0  0
  8 25  1  0  0  0  0
  9 31  3  0  0  0  0
 10 11  1  0  0  0  0
 10 12  1  0  0  0  0
 10 13  1  0  0  0  0
 11 14  1  0  0  0  0
 11 15  1  0  0  0  0
 11 32  1  0  0  0  0
 12 33  1  0  0  0  0
 12 34  1  0  0  0  0
 13 16  2  0  0  0  0
 13 17  1  0  0  0  0
 14 35  1  0  0  0  0
 14 36  1  0  0  0  0
 14 37  1  0  0  0  0
 16 20  1  0  0  0  0
 17 19  2  0  0  0  0
 17 39  1  0  0  0  0
 18 22  2  0  0  0  0
 18 24  1  0  0  0  0
 19 23  1  0  0  0  0
 20 23  2  0  0  0  0
 20 40  1  0  0  0  0
 21 41  1  0  0  0  0
 22 42  1  0  0  0  0
 23 43  1  0  0  0  0
 24 26  2  0  0  0  0
 24 27  1  0  0  0  0
 25 44  1  0  0  0  0
 26 28  1  0  0  0  0
 26 45  1  0  0  0  0
 27 29  2  0  0  0  0
 27 46  1  0  0  0  0
 28 30  2  0  0  0  0
 28 47  1  0  0  0  0
 29 30  1  0  0  0  0
 29 48  1  0  0  0  0
 30 31  1  0  0  0  0
M  END
> <PUBCHEM_COMPOUND_CID>
6918485

> <PUBCHEM_CONFORMER_RMSD>
0.8

> <PUBCHEM_CONFORMER_DIVERSEORDER>
2
43
29
40
56
53
68
55
52
15
48
44
20
32
73
36
25
63
72
64
18
13
59
45
49
67
37
61
30
54
35
19
71
46
33
51
42
22
7
6
65
58
24
31
27
66
50
39
34
17
38
26
69
62
47
12
11
16
5
21
14
57
41
60
1
4
8
10
9
23
70
28
3

> <PUBCHEM_MMFF94_PARTIAL_CHARGES>
41
1 -0.08
10 0.42
11 0.18
12 0.26
13 -0.14
15 0.2
16 0.19
17 -0.15
18 0.17
19 0.19
2 -0.19
20 -0.15
21 0.04
22 -0.11
23 -0.15
24 0.05
25 0.37
26 -0.15
27 -0.15
28 -0.15
29 -0.15
3 -0.19
30 0.07
31 0.48
38 0.4
39 0.15
4 -0.68
40 0.15
41 0.15
42 0.15
43 0.15
44 0.15
45 0.15
46 0.15
47 0.15
48 0.15
5 0.31
6 -0.57
7 -0.71
8 -0.57
9 -0.56

> <PUBCHEM_EFFECTIVE_ROTOR_COUNT>
6

> <PUBCHEM_PHARMACOPHORE_FEATURES>
11
1 14 hydrophobe
1 4 acceptor
1 4 donor
1 6 acceptor
1 9 acceptor
3 5 8 21 cation
3 7 8 25 cation
5 1 6 15 18 22 rings
5 5 7 8 21 25 rings
6 13 16 17 19 20 23 rings
6 24 26 27 28 29 30 rings

> <PUBCHEM_HEAVY_ATOM_COUNT>
31

> <PUBCHEM_ATOM_DEF_STEREO_COUNT>
2

> <PUBCHEM_ATOM_UDEF_STEREO_COUNT>
0

> <PUBCHEM_BOND_DEF_STEREO_COUNT>
0

> <PUBCHEM_BOND_UDEF_STEREO_COUNT>
0

> <PUBCHEM_ISOTOPIC_ATOM_COUNT>
0

> <PUBCHEM_COMPONENT_COUNT>
1

> <PUBCHEM_CACTVS_TAUTO_COUNT>
2

> <PUBCHEM_CONFORMER_ID>
0069915500000002

> <PUBCHEM_MMFF94_ENERGY>
72.5142

> <PUBCHEM_FEATURE_SELFOVERLAP>
58.599

> <PUBCHEM_SHAPE_FINGERPRINT>
10670039 82 18342178852162616600
10871710 139 18343021047867604465
10906281 52 18269272375355964115
11007060 377 17023193777133069178
11101153 10 18343022237384128688
11315621 246 17418088857957202687
11477941 20 17988921193285524384
11479125 193 16011589293720163292
11505856 67 17986114011404229513
11513181 2 18056769736737468790
12107698 1 18131632313913712224
12788726 201 18270669884261775947
13540713 5 18195521485296449715
13673619 4 16056594400098054311
13757389 114 18060139873226550287
13911987 19 18339067251467866567
14118638 360 18343867693717724014
14294032 229 17916593008208728945
14556957 393 18413106152226180341
14856354 85 18201441428437949031
14931854 50 18408887339411543052
15064981 113 18201434736978791350
15064981 194 18044677505550063182
15183329 4 18202289113290170638
15289351 153 18410572917298304040
15448158 71 17978516330047324392
15575132 122 18342457011028818869
1577012 14 18410300173309182160
16752209 62 18058433353474957715
16991971 28 17915730076459547919
19958102 18 17704356563489678414
20642791 35 18270109235814856400
20771845 38 9222964646929192453
21033648 144 17676212351193955866
21033648 29 17168416177744659308
21033650 10 17274835631680107578
21049683 271 18261949761101037077
21267235 1 12607417606919433846
21304303 64 17822008667211686925
21641784 216 18270951359154551477
21756936 100 18336279989485633930
22907989 373 18268134376136053449
249057 25 18335973165686087682
255183 451 17556842939828469127
312425 54 12179838412608138108
3918712 181 18048877687825958612
4073 2 16153428372377351218
4098825 35 17845949420435736590
4258327 124 16734126702676545510
46194498 28 16486674979457827512
5171179 24 17631716271106892017
57527585 21 18057024845025941741
6608658 132 18411419501336060196
7237137 82 17846214419311290257
7808743 9 18126851499394865552

> <PUBCHEM_SHAPE_MULTIPOLES>
596.49
16.7
3.19
2.08
27.78
2.78
-0.54
5.09
-9.78
-2.41
1.94
-2.11
0.13
-3.22

> <PUBCHEM_SHAPE_SELFOVERLAP>
1301.453

> <PUBCHEM_SHAPE_VOLUME>
328.6

> <PUBCHEM_COORDINATE_TYPE>
2
5
10

$$$$
