5478883
 OpenBabel01272613493D

111110  0  0  1  0  0  0  0  0999 V2000
   -1.9123    0.4723   -1.2281 O   0  0  0  0  0  0  0  0  0  0  0  0
   -6.4331   -0.9818   -4.2920 O   0  0  0  0  0  0  0  0  0  0  0  0
    1.0068   -4.7667   -0.7122 O   0  0  0  0  0  0  0  0  0  0  0  0
   -0.6376   -0.5157   -5.5140 O   0  0  0  0  0  0  0  0  0  0  0  0
    5.5239   -3.7414   -2.6902 O   0  0  0  0  0  0  0  0  0  0  0  0
   -3.8043   -3.8089   -3.8641 O   0  0  0  0  0  0  0  0  0  0  0  0
   -8.3593   -0.6095   -2.0576 O   0  0  0  0  0  0  0  0  0  0  0  0
    4.6244   -8.4790   -1.9898 O   0  0  0  0  0  0  0  0  0  0  0  0
   -7.4778   -2.1941   -0.7502 O   0  0  0  0  0  0  0  0  0  0  0  0
   -0.0356   -2.7843   -0.6080 N   0  0  0  0  0  0  0  0  0  0  0  0
    3.6610   -3.5475   -1.6217 N   0  0  0  0  0  0  0  0  0  0  0  0
   -4.9034   -2.9134   -5.6914 N   0  0  0  0  0  0  0  0  0  0  0  0
   -1.6446   -2.2044   -4.3999 N   0  0  0  0  0  0  0  0  0  0  0  0
    3.2562   -6.6541   -2.2737 N   0  0  0  0  0  0  0  0  0  0  0  0
   -0.4099   -1.3295   -0.5541 C   0  0  1  0  0  0  0  0  0  0  0  0
    0.5817   -0.3971    0.2135 C   0  0  0  0  0  0  0  0  0  0  0  0
   -1.2500   -0.7048   -1.7733 C   0  0  2  0  0  0  0  0  0  0  0  0
    0.7294   -0.7195    1.7390 C   0  0  0  0  0  0  0  0  0  0  0  0
    2.2897   -2.9498   -1.6579 C   0  0  1  0  0  0  0  0  0  0  0  0
   -6.2877   -3.1843   -5.2285 C   0  0  1  0  0  0  0  0  0  0  0  0
   -0.6676   -0.2469   -3.1272 C   0  0  0  0  0  0  0  0  0  0  0  0
    1.8024   -2.3775   -2.9887 C   0  0  0  0  0  0  0  0  0  0  0  0
    1.0649   -3.5564   -0.9339 C   0  0  0  0  0  0  0  0  0  0  0  0
   -6.5067   -4.7154   -5.3269 C   0  0  0  0  0  0  0  0  0  0  0  0
   -7.9156   -5.3081   -5.6070 C   0  0  0  0  0  0  0  0  0  0  0  0
   -6.5004   -2.3772   -3.9002 C   0  0  2  0  0  0  0  0  0  0  0  0
    1.9060    0.0444    2.3656 C   0  0  0  0  0  0  0  0  0  0  0  0
   -0.5299   -0.3794    2.5531 C   0  0  0  0  0  0  0  0  0  0  0  0
    4.3397   -5.8277   -2.8023 C   0  0  1  0  0  0  0  0  0  0  0  0
   -0.9764   -1.0087   -4.4352 C   0  0  0  0  0  0  0  0  0  0  0  0
    4.5671   -6.0177   -4.3469 C   0  0  0  0  0  0  0  0  0  0  0  0
    4.4620   -4.3222   -2.3968 C   0  0  0  0  0  0  0  0  0  0  0  0
   -2.4694   -2.6712   -5.5254 C   0  0  2  0  0  0  0  0  0  0  0  0
    2.7445   -1.3851   -3.6546 C   0  0  0  0  0  0  0  0  0  0  0  0
    1.2150   -3.3774   -3.9558 C   0  0  0  0  0  0  0  0  0  0  0  0
   -7.7747   -2.6352   -3.1262 C   0  0  0  0  0  0  0  0  0  0  0  0
   -3.7871   -3.1799   -4.9275 C   0  0  0  0  0  0  0  0  0  0  0  0
   -7.7694   -6.7867   -6.0279 C   0  0  0  0  0  0  0  0  0  0  0  0
   -8.8943   -5.2556   -4.4433 C   0  0  0  0  0  0  0  0  0  0  0  0
    4.7230   -7.4512   -4.8535 C   0  0  0  0  0  0  0  0  0  0  0  0
    3.4534   -5.3899   -5.1477 C   0  0  0  0  0  0  0  0  0  0  0  0
   -1.8885   -3.7926   -6.3825 C   0  0  0  0  0  0  0  0  0  0  0  0
    3.5381   -7.9669   -1.8802 C   0  0  0  0  0  0  0  0  0  0  0  0
    2.3499   -8.7961   -1.4027 C   0  0  0  0  0  0  0  0  0  0  0  0
   -7.8338   -1.8352   -1.8588 C   0  0  0  0  0  0  0  0  0  0  0  0
    1.2950   -8.0409   -0.5872 C   0  0  0  0  0  0  0  0  0  0  0  0
    0.1818   -8.9800   -0.1186 C   0  0  0  0  0  0  0  0  0  0  0  0
    1.9246   -7.3524    0.6272 C   0  0  0  0  0  0  0  0  0  0  0  0
   -1.2330   -1.3976    0.1729 H   0  0  0  0  0  0  0  0  0  0  0  0
    1.5663   -0.4274   -0.2573 H   0  0  0  0  0  0  0  0  0  0  0  0
    0.2539    0.6464    0.1336 H   0  0  0  0  0  0  0  0  0  0  0  0
   -2.0663   -1.4054   -1.9677 H   0  0  0  0  0  0  0  0  0  0  0  0
    0.9349   -1.7895    1.8609 H   0  0  0  0  0  0  0  0  0  0  0  0
    2.4798   -2.0772   -1.0216 H   0  0  0  0  0  0  0  0  0  0  0  0
   -0.7233   -3.3781   -0.1509 H   0  0  0  0  0  0  0  0  0  0  0  0
   -6.9152   -2.7162   -5.9998 H   0  0  0  0  0  0  0  0  0  0  0  0
   -1.1150    0.7326   -3.3627 H   0  0  0  0  0  0  0  0  0  0  0  0
    0.3949   -0.0039   -3.0556 H   0  0  0  0  0  0  0  0  0  0  0  0
    0.9453   -1.8034   -2.6935 H   0  0  0  0  0  0  0  0  0  0  0  0
   -5.9232   -5.0253   -6.2118 H   0  0  0  0  0  0  0  0  0  0  0  0
   -6.0329   -5.2256   -4.4825 H   0  0  0  0  0  0  0  0  0  0  0  0
   -8.3692   -4.7681   -6.4485 H   0  0  0  0  0  0  0  0  0  0  0  0
   -5.6669   -2.5282   -3.2088 H   0  0  0  0  0  0  0  0  0  0  0  0
    1.7770    1.1285    2.2753 H   0  0  0  0  0  0  0  0  0  0  0  0
    1.9928   -0.1872    3.4355 H   0  0  0  0  0  0  0  0  0  0  0  0
    2.8536   -0.2336    1.8958 H   0  0  0  0  0  0  0  0  0  0  0  0
   -0.3479   -0.5095    3.6277 H   0  0  0  0  0  0  0  0  0  0  0  0
   -0.8373    0.6607    2.3983 H   0  0  0  0  0  0  0  0  0  0  0  0
   -1.3699   -1.0296    2.2965 H   0  0  0  0  0  0  0  0  0  0  0  0
    4.2892   -2.7660   -1.4536 H   0  0  0  0  0  0  0  0  0  0  0  0
    5.2491   -6.2449   -2.3412 H   0  0  0  0  0  0  0  0  0  0  0  0
   -4.8042   -2.2985   -6.4900 H   0  0  0  0  0  0  0  0  0  0  0  0
    5.4883   -5.4840   -4.6184 H   0  0  0  0  0  0  0  0  0  0  0  0
   -2.6902   -1.8080   -6.1741 H   0  0  0  0  0  0  0  0  0  0  0  0
    3.5010   -1.8847   -4.2618 H   0  0  0  0  0  0  0  0  0  0  0  0
    2.1793   -0.7174   -4.3163 H   0  0  0  0  0  0  0  0  0  0  0  0
    3.2408   -0.7542   -2.9106 H   0  0  0  0  0  0  0  0  0  0  0  0
    0.6147   -4.1582   -3.4815 H   0  0  0  0  0  0  0  0  0  0  0  0
    0.6257   -2.9033   -4.7353 H   0  0  0  0  0  0  0  0  0  0  0  0
    1.9999   -3.8205   -4.5107 H   0  0  0  0  0  0  0  0  0  0  0  0
   -1.2956    1.2237   -1.2768 H   0  0  0  0  0  0  0  0  0  0  0  0
   -7.8228   -3.6755   -2.8060 H   0  0  0  0  0  0  0  0  0  0  0  0
   -8.6583   -2.3814   -3.7190 H   0  0  0  0  0  0  0  0  0  0  0  0
   -1.6898   -2.7718   -3.5632 H   0  0  0  0  0  0  0  0  0  0  0  0
   -7.8134   -6.8754   -7.1183 H   0  0  0  0  0  0  0  0  0  0  0  0
   -6.8190   -7.2165   -5.6944 H   0  0  0  0  0  0  0  0  0  0  0  0
   -8.5681   -7.4187   -5.6227 H   0  0  0  0  0  0  0  0  0  0  0  0
   -9.2935   -4.2512   -4.3192 H   0  0  0  0  0  0  0  0  0  0  0  0
   -9.7733   -5.8838   -4.6228 H   0  0  0  0  0  0  0  0  0  0  0  0
   -8.4272   -5.6023   -3.5163 H   0  0  0  0  0  0  0  0  0  0  0  0
    2.4092   -6.1959   -1.9750 H   0  0  0  0  0  0  0  0  0  0  0  0
    4.7665   -7.4580   -5.9501 H   0  0  0  0  0  0  0  0  0  0  0  0
    5.6487   -7.8987   -4.4911 H   0  0  0  0  0  0  0  0  0  0  0  0
    3.8734   -8.0801   -4.5762 H   0  0  0  0  0  0  0  0  0  0  0  0
    2.4839   -5.6772   -4.7225 H   0  0  0  0  0  0  0  0  0  0  0  0
    3.6222   -4.3072   -5.1450 H   0  0  0  0  0  0  0  0  0  0  0  0
    3.4329   -5.6810   -6.2021 H   0  0  0  0  0  0  0  0  0  0  0  0
   -1.2992   -3.3915   -7.2142 H   0  0  0  0  0  0  0  0  0  0  0  0
   -1.2493   -4.4691   -5.8076 H   0  0  0  0  0  0  0  0  0  0  0  0
   -2.6862   -4.4037   -6.8309 H   0  0  0  0  0  0  0  0  0  0  0  0
   -7.1966   -0.5005   -3.9220 H   0  0  0  0  0  0  0  0  0  0  0  0
    1.8911   -9.2610   -2.2808 H   0  0  0  0  0  0  0  0  0  0  0  0
    2.7586   -9.6053   -0.7864 H   0  0  0  0  0  0  0  0  0  0  0  0
    0.8271   -7.2933   -1.2367 H   0  0  0  0  0  0  0  0  0  0  0  0
    0.4794   -9.5429    0.7726 H   0  0  0  0  0  0  0  0  0  0  0  0
   -0.7112   -8.3988    0.1379 H   0  0  0  0  0  0  0  0  0  0  0  0
   -0.0993   -9.6972   -0.8964 H   0  0  0  0  0  0  0  0  0  0  0  0
    2.7138   -6.6512    0.3354 H   0  0  0  0  0  0  0  0  0  0  0  0
    1.1725   -6.7859    1.1812 H   0  0  0  0  0  0  0  0  0  0  0  0
    2.3760   -8.0848    1.3033 H   0  0  0  0  0  0  0  0  0  0  0  0
   -8.3821   -0.2167   -1.1573 H   0  0  0  0  0  0  0  0  0  0  0  0
  1 81  1  0  0  0  0
  2101  1  0  0  0  0
  3 23  2  0  0  0  0
  4 30  2  0  0  0  0
  5 32  2  0  0  0  0
  6 37  2  0  0  0  0
  7 45  1  0  0  0  0
  7111  1  0  0  0  0
  8 43  2  0  0  0  0
  9 45  2  0  0  0  0
 10 23  1  0  0  0  0
 10 55  1  0  0  0  0
 11 32  1  0  0  0  0
 11 70  1  0  0  0  0
 12 37  1  0  0  0  0
 12 72  1  0  0  0  0
 13 30  1  0  0  0  0
 13 84  1  0  0  0  0
 14 43  1  0  0  0  0
 14 91  1  0  0  0  0
 15 10  1  0  0  0  0
 15 16  1  0  0  0  0
 15 49  1  1  0  0  0
 16 18  1  0  0  0  0
 16 50  1  0  0  0  0
 16 51  1  0  0  0  0
 17 21  1  0  0  0  0
 17 52  1  6  0  0  0
 17 15  1  0  0  0  0
 17  1  1  0  0  0  0
 18 27  1  0  0  0  0
 18 28  1  0  0  0  0
 18 53  1  0  0  0  0
 19 11  1  0  0  0  0
 19 22  1  0  0  0  0
 19 23  1  0  0  0  0
 19 54  1  1  0  0  0
 20 12  1  0  0  0  0
 20 24  1  0  0  0  0
 20 26  1  0  0  0  0
 20 56  1  6  0  0  0
 21 30  1  0  0  0  0
 21 57  1  0  0  0  0
 21 58  1  0  0  0  0
 22 34  1  0  0  0  0
 22 35  1  0  0  0  0
 22 59  1  0  0  0  0
 24 25  1  0  0  0  0
 24 60  1  0  0  0  0
 24 61  1  0  0  0  0
 25 38  1  0  0  0  0
 25 39  1  0  0  0  0
 25 62  1  0  0  0  0
 26  2  1  0  0  0  0
 26 36  1  0  0  0  0
 26 63  1  1  0  0  0
 27 64  1  0  0  0  0
 27 65  1  0  0  0  0
 27 66  1  0  0  0  0
 28 67  1  0  0  0  0
 28 68  1  0  0  0  0
 28 69  1  0  0  0  0
 29 14  1  0  0  0  0
 29 31  1  0  0  0  0
 29 32  1  0  0  0  0
 29 71  1  1  0  0  0
 31 40  1  0  0  0  0
 31 41  1  0  0  0  0
 31 73  1  0  0  0  0
 33 42  1  0  0  0  0
 33 74  1  6  0  0  0
 33 37  1  0  0  0  0
 33 13  1  0  0  0  0
 34 75  1  0  0  0  0
 34 76  1  0  0  0  0
 34 77  1  0  0  0  0
 35 78  1  0  0  0  0
 35 79  1  0  0  0  0
 35 80  1  0  0  0  0
 36 45  1  0  0  0  0
 36 82  1  0  0  0  0
 36 83  1  0  0  0  0
 38 85  1  0  0  0  0
 38 86  1  0  0  0  0
 38 87  1  0  0  0  0
 39 88  1  0  0  0  0
 39 89  1  0  0  0  0
 39 90  1  0  0  0  0
 40 92  1  0  0  0  0
 40 93  1  0  0  0  0
 40 94  1  0  0  0  0
 41 95  1  0  0  0  0
 41 96  1  0  0  0  0
 41 97  1  0  0  0  0
 42 98  1  0  0  0  0
 42 99  1  0  0  0  0
 42100  1  0  0  0  0
 43 44  1  0  0  0  0
 44 46  1  0  0  0  0
 44102  1  0  0  0  0
 44103  1  0  0  0  0
 46 47  1  0  0  0  0
 46 48  1  0  0  0  0
 46104  1  0  0  0  0
 47105  1  0  0  0  0
 47106  1  0  0  0  0
 47107  1  0  0  0  0
 48108  1  0  0  0  0
 48109  1  0  0  0  0
 48110  1  0  0  0  0
M  END
>  <PUBCHEM_COMPOUND_CID>
5478883

>  <PUBCHEM_COMPOUND_CANONICALIZED>
1

>  <PUBCHEM_CACTVS_COMPLEXITY>
1060

>  <PUBCHEM_CACTVS_HBOND_ACCEPTOR>
9

>  <PUBCHEM_CACTVS_HBOND_DONOR>
8

>  <PUBCHEM_CACTVS_ROTATABLE_BOND>
22

>  <PUBCHEM_CACTVS_SUBSKEYS>
AAADcfB/vAAAAAAAAAAAAAAAAAAAAAAAAAAAAAAAAAAAAAAAAAAAHgAQCAAADTzhgAYCCALAAgAIAAGQGAAAAAAAAAAAAIGIAAACUBYAgCAUQAAHNgCQAAG8yGCMAAAAAAAAAAAAAAAAAAAAAAAAAAAAAA==

>  <PUBCHEM_IUPAC_OPENEYE_NAME>
(3S,4S)-3-hydroxy-4-[[(2S)-2-[[(3S,4S)-3-hydroxy-6-methyl-4-[[(2S)-3-methyl-2-[[(2S)-3-methyl-2-(3-methylbutanoylamino)butanoyl]amino]butanoyl]amino]heptanoyl]amino]propanoyl]amino]-6-methyl-heptanoic acid

>  <PUBCHEM_IUPAC_CAS_NAME>
(3S,4S)-3-hydroxy-4-[[(2S)-2-[[(3S,4S)-3-hydroxy-6-methyl-4-[[(2S)-3-methyl-2-[[(2S)-3-methyl-2-[(3-methyl-1-oxobutyl)amino]-1-oxobutyl]amino]-1-oxobutyl]amino]-1-oxoheptyl]amino]-1-oxopropyl]amino]-6-methylheptanoic acid

>  <PUBCHEM_IUPAC_NAME_MARKUP>
(3<I>S</I>,4<I>S</I>)-3-hydroxy-4-[[(2<I>S</I>)-2-[[(3<I>S</I>,4<I>S</I>)-3-hydroxy-6-methyl-4-[[(2<I>S</I>)-3-methyl-2-[[(2<I>S</I>)-3-methyl-2-(3-methylbutanoylamino)butanoyl]amino]butanoyl]amino]heptanoyl]amino]propanoyl]amino]-6-methylheptanoic acid

>  <PUBCHEM_IUPAC_NAME>
(3S,4S)-3-hydroxy-4-[[(2S)-2-[[(3S,4S)-3-hydroxy-6-methyl-4-[[(2S)-3-methyl-2-[[(2S)-3-methyl-2-(3-methylbutanoylamino)butanoyl]amino]butanoyl]amino]heptanoyl]amino]propanoyl]amino]-6-methylheptanoic acid

>  <PUBCHEM_IUPAC_SYSTEMATIC_NAME>
(3S,4S)-6-methyl-4-[[(2S)-2-[[(3S,4S)-6-methyl-4-[[(2S)-3-methyl-2-[[(2S)-3-methyl-2-(3-methylbutanoylamino)butanoyl]amino]butanoyl]amino]-3-oxidanyl-heptanoyl]amino]propanoyl]amino]-3-oxidanyl-heptanoic acid

>  <PUBCHEM_IUPAC_TRADITIONAL_NAME>
(3S,4S)-3-hydroxy-4-[[(2S)-2-[[(3S,4S)-3-hydroxy-4-[[(2S)-2-[[(2S)-2-(isovalerylamino)-3-methyl-butanoyl]amino]-3-methyl-butanoyl]amino]-6-methyl-heptanoyl]amino]propanoyl]amino]-6-methyl-enanthic acid

>  <PUBCHEM_IUPAC_INCHI>
InChI=1S/C34H63N5O9/c1-17(2)12-23(37-33(47)31(21(9)10)39-34(48)30(20(7)8)38-27(42)14-19(5)6)25(40)15-28(43)35-22(11)32(46)36-24(13-18(3)4)26(41)16-29(44)45/h17-26,30-31,40-41H,12-16H2,1-11H3,(H,35,43)(H,36,46)(H,37,47)(H,38,42)(H,39,48)(H,44,45)/t22-,23-,24-,25-,26-,30-,31-/m0/s1

>  <PUBCHEM_IUPAC_INCHIKEY>
FAXGPCHRFPCXOO-LXTPJMTPSA-N

>  <PUBCHEM_XLOGP3_AA>
3

>  <PUBCHEM_EXACT_MASS>
685.46257860

>  <PUBCHEM_MOLECULAR_FORMULA>
C34H63N5O9

>  <PUBCHEM_MOLECULAR_WEIGHT>
685.9

>  <PUBCHEM_SMILES>
C[C@@H](C(=O)N[C@@H](CC(C)C)[C@H](CC(=O)O)O)NC(=O)C[C@@H]([C@H](CC(C)C)NC(=O)[C@H](C(C)C)NC(=O)[C@H](C(C)C)NC(=O)CC(C)C)O

>  <PUBCHEM_CONNECTIVITY_SMILES>
CC(C)CC(C(CC(=O)O)O)NC(=O)C(C)NC(=O)CC(C(CC(C)C)NC(=O)C(C(C)C)NC(=O)C(C(C)C)NC(=O)CC(C)C)O

>  <PUBCHEM_CACTVS_TPSA>
223

>  <PUBCHEM_MONOISOTOPIC_WEIGHT>
685.46257860

>  <PUBCHEM_TOTAL_CHARGE>
0

>  <PUBCHEM_HEAVY_ATOM_COUNT>
48

>  <PUBCHEM_ATOM_DEF_STEREO_COUNT>
7

>  <PUBCHEM_ATOM_UDEF_STEREO_COUNT>
0

>  <PUBCHEM_BOND_DEF_STEREO_COUNT>
0

>  <PUBCHEM_BOND_UDEF_STEREO_COUNT>
0

>  <PUBCHEM_ISOTOPIC_ATOM_COUNT>
0

>  <PUBCHEM_COMPONENT_COUNT>
1

>  <PUBCHEM_CACTVS_TAUTO_COUNT>
-1

>  <PUBCHEM_COORDINATE_TYPE>
1
5
255

>  <PUBCHEM_BONDANNOTATIONS>
17  1  6
15  10  5
19  11  6
20  12  5
33  13  6
29  14  5
26  2  6

>  <Energy>
148.633

$$$$
